Circuit: * m_qtsra_qss01

Fatal Error: No analysis request found.
