Circuit: * D:\Christophe\LTSpice\PWM Switch\cm_dcm_chris_with_dcbais.asc

x1:c1:vc: Missing value, assumed 0V @ DC
x1:vm: Missing value, assumed 0V @ DC
Direct Newton iteration for .op point succeeded.
Date: Wed Nov 28 13:31:10 2007
Total elapsed time: 0.219 seconds.

tnom = 27
temp = 27
method = trap
totiter = 41
traniter = 0
tranpoints = 0
accept = 0
rejected = 0
trancuriters = 41
matrix size = 39
fillins = 45
solver = Normal

