Circuit: * D:\Christophe\LTSpice\PWM Switch\cm_transit_stepmode_comp_basCHRIS.asc

x1:vm: Missing value, assumed 0V @ DC
Ignoring empty pin current: Ix(u1:1)
Ignoring empty pin current: Ix(u1:5)
Direct Newton iteration for .op point succeeded.
Date: Wed Nov 28 18:42:36 2007
Total elapsed time: 0.078 seconds.

tnom = 27
temp = 27
method = modified trap
totiter = 786
traniter = 747
tranpoints = 313
accept = 303
rejected = 10
trancuriters = 0
matrix size = 42
fillins = 51
solver = Normal

